powerfactory/powerfactory-converter/src/test/resources/Transformer-VlVh.dgs
$$General;ID(a:40);Descr(a:40);Val(a:40)
  1;Version;5.0


$$ChaRef;ID(a:40);loc_name(a:40);fold_id(p)
  2;fline;4


$$ChaVec;ID(a:40);loc_name(a:40);fold_id(p);scale(p);usage(i);approx(i);vector:SIZEROW(i);vector:0(r);vector:1(r);vector:2(r)
  3;vec_1;;;0;0;3;100;199,98;199,98


$$ElmLne;ID(a:40);loc_name(a:40);for_name(a:50);fold_id(p);typ_id(p);dline(r);fline(r);GPScoords:SIZEROW(i);GPScoords:SIZECOL(i);nlnum(i);inAir(i)
  4;lne_1_2_1;;6;25;52;1;0;0;1;0


$$ElmLod;ID(a:40);loc_name(a:40);for_name(a:50);fold_id(p);typ_id(p);mode_inp(a:3);slini(r);plini(r);qlini(r);coslini(r);pf_recap(i);scale0(r);i_scale(i);outserv(i);classif(a:20)
  5;lod_3_1;;6;26;PQ;55,9017;50;25;0,894427;0;1;0;0;


$$ElmNet;ID(a:40);loc_name(a:40);for_name(a:50);fold_id(p);frnom(r);pDiagram(p)
  6;1 aux_1;;;60;


$$ElmSym;ID(a:40);loc_name(a:40);for_name(a:50);fold_id(p);typ_id(p);cCategory(a);ngnum(i);i_mot(i);pgini(r);qgini(r);cosgini(r);usetp(r);pf_recap(i);q_min(r);q_max(r);outserv(i);av_mode(a);phtech(i)
  7;sym_1_1;;6;27;Others;1;0;52,79;0;1;1,06;0;0;0;0;constv;1


$$ElmTerm;ID(a:40);loc_name(a:40);for_name(a:50);fold_id(p);typ_id(p);systype(i);iUsage(i);uknom(r);unknom(r);iminus(i);outserv(i);GPSlat(r);GPSlon(r);vtarget(r);m:u(r);m:phiu(r)
  8;1 Bus 1-Slack;;6;;0;0;110;63,50853;0;0;0;0;1;1,05999994277954;0
  9;2 Bus 2;;6;;0;0;110;63,50853;0;0;0;0;1;1,02343677742772;-1,15242759223048
  10;3 Bus 2-Load;;6;;0;0;35;20,20726;0;0;0;0;1;0,69435151520453;-25,5465595510354


$$ElmTr2;ID(a:40);loc_name(a:40);fold_id(p);for_name(a:50);typ_id(p);ntnum(i);outserv(i);nntap(i);i_auto(i);ntrcn(i);usetp(r);usp_low(r);usp_up(r);t2ldc(i)
  11;trf_2_3_1;6;;28;1;0;0;0;1;1;0,85715;1,14285;1


$$ElmZone;ID(a:40);loc_name(a:40);for_name(a:50);fold_id(p);icolor(i);curscale(r)
  12;1_aux_1;;;1;1


$$StaCubic;ID(a:40);loc_name(a:40);for_name(a:50);fold_id(p);obj_bus(i);obj_id(p);it2p1(i);it2p2(i);it2p3(i)
  13;lne_1_2_1;;8;0;4;0;1;2
  14;sym_1_1;;8;0;7;0;1;2
  15;lne_1_2_1;;9;1;4;0;1;2
  16;trf_2_3_1;;9;0;11;0;1;2
  17;lod_3_1;;10;0;5;0;1;2
  18;trf_2_3_1;;10;1;11;0;1;2


$$StaSwitch;ID(a:40);loc_name(a:40);for_name(a:50);fold_id(p);on_off(i);typ_id(p);aUsage(a)
  19;Switch;;13;1;;cbk
  20;Switch;;14;1;;cbk
  21;Switch;;15;1;;cbk
  22;Switch;;16;1;;cbk
  23;Switch;;17;1;;cbk
  24;Switch;;18;1;;cbk


$$TypLne;ID(a:40);loc_name(a:40);for_name(a:50);fold_id(p);uline(r);sline(r);InomAir(r);cohl_(i);rline(r);xline(r);rline0(r);xline0(r);Ithr(r);tmax(r);rtemp(r);systp(i);nlnph(i);nneutral(i);frnom(r);mlei(a:2);bline(r);bline0(r)
  25;tlne_1_2_1;;6;110;26,24319;1;0;0,045095;0,137684;999999;999999;0;80;80;0;3;0;60;Cu;55,00318;0


$$TypLod;ID(a:40);loc_name(a:40);for_name(a:50);fold_id(p);systp(i);phtech(i);aP(r);bP(r);kpu0(r);kpu1(r);kpu(r);aQ(r);bQ(r);kqu0(r);kqu1(r);kqu(r)
  26;lodtyp_pq;;6;0;0;1;0;0;1;2;1;0;0;1;2


$$TypSym;ID(a:40);loc_name(a:40);for_name(a:50);fold_id(p);sgn(r);ugn(r);cosn(r);xd(r);xq(r);xdsss(r);rstr(r);xdsat(r);satur(i);nphase(i);nslty(i);x0sy(r);r0sy(r);x2sy(r);r2sy(r);iopt_data(i);xds(r);xqs(r);xl(r);xdss(r);xqss(r);xrlq(r);tds(r);tqs(r);tdss(r);tqss(r)
  27;tsym_1_1;;6;615;110;1;2;2;1;0;1,2;0;3;2;1;0;1;0;1;0,3;0,3;0,1;1;1;0;1;0;0,05;0,05


$$TypTr2;ID(a:40);loc_name(a:40);for_name(a:50);fold_id(p);nt2ph(i);strn(r);frnom(r);utrn_h(r);utrn_l(r);uktr(r);pcutr(r);uk0tr(r);ur0tr(r);tr2cn_h(a:2);tr2cn_l(a:2);nt2ag(r);curmg(r);pfe(r);zx0hl_n(r);itapch(i);tap_side(i);dutap(r);phitr(r);nntap0(i);ntpmn(i);ntpmx(i);manuf(a:20)
  28;ttrf_2_3_1;;6;3;20;60;110;35;12,0471;117,2;0;0;D;D;-0;0;0;100;1;1;1,190417;0;0;-12;12;
